*Heading
** Job name: Converged_55 Model name: Mesh_study
** Generated by: Abaqus/CAE 2019
*Preprint, echo=NO, model=NO, history=NO, contact=NO
**
** PARTS
**
*Part, name=membrane
*End Part
**  
**
** ASSEMBLY
**
*Assembly, name=Assembly
**  
*Instance, name=membrane-1, part=membrane
*Node
      1,  -19.6572666,    9.5255537,           0.
      2,  -20.4386349,   8.75848293,           0.
      3,  -18.8758965,   10.2926245,           0.
      4,  -17.9379482,   10.6463127,           0.
      5,         -17.,          11.,           0.
      6,  -16.1000004,   11.3999996,           0.
      7,  -15.1999998,   11.8000002,           0.
      8,  -14.6141253,   12.8526154,           0.
      9,  -15.1999998,   13.9012547,           0.
     10,  -16.2800007,   15.0013866,           0.
     11,         -17.,    15.734808,           0.
     12,  -15.7442379,   16.9675903,           0.
     13,  -14.9070625,   17.7894459,           0.
     14,  -14.1258812,   16.9937038,           0.
     15,  -12.9541101,   15.8000898,           0.
     16,  -12.3595848,   14.7655659,           0.
     17,  -11.6157513,   13.8593397,           0.
     18,        -10.5,         12.5,           0.
     19,  -9.40713501,   11.3867636,           0.
     20,  -8.31426907,   10.2735262,           0.
** ... 2393 like lines cut
*Element, type=S3
 1, 1282, 1205,  135
 2, 2199, 1238, 1052
 3, 2198, 2141, 1415
 4, 2398,  247, 1924
 5, 2365, 1819, 1687
 6, 1635, 1586,  308
 7, 1482, 1417, 1337
 8, 1758, 2326,  163
 9, 1730, 2403, 2392
10, 1794, 2365,  336
11, 2077, 1392,  936
12,  974,  362,  879
13,  977,  442,  905
14,  980, 1129, 1024
15, 2110, 1250, 1067
16,  948,  320, 1019
17, 1107, 1081,  201
18, 2146, 1155, 1399
19, 2128,  238, 1171
20, 2163, 2238,  381
** ... 53 like lines cut
*Element, type=S4R
  74,  621,  768,  853,  620
  75,  138,    6,  513,  622
  76,  622,  513,    7,  793
  77,  915,  768,  845,  946
  78, 1017, 1051,  121,  984
  79, 1553, 1636, 2223,  113
  80, 2265, 1670, 1561, 2223
  81, 1710, 1748, 1788,  179
  82,  178, 2354, 1788, 1748
  83,  215, 1737, 1808, 2409
  84, 1525, 1723, 2347, 1582
  85,  256, 1634, 1566, 1495
  86, 2261, 1488,  278, 1322
  87,  301, 1291, 1215, 1153
  88, 1153, 1244, 1080,  301
  89,  708,  822,  600,   90
  90,  819,  710,   88,  599
  91,  822,  894,  968,  344
  92,  625,  511,    5,  620
  93,  620,    5,  512,  621
** ... 2250 like lines cut
*Nset, nset=Set-1, generate
    1,  2413,     1
*Elset, elset=Set-1, generate
    1,  2343,     1
*Nset, nset=Set-2, generate
    1,  2413,     1
*Elset, elset=Set-2, generate
    1,  2343,     1
** Section: Section-1
*Shell Section, elset=Set-2, material=membrane
0.027385694341397336, 5
*End Instance
**  
*Nset, nset=Set-1, instance=membrane-1
   8,   9,  10,  11,  12,  13,  14,  15,  16, 515, 516, 517, 518, 519, 520, 521
 522, 523, 524, 525
*Elset, elset=Set-1, instance=membrane-1
  124,  125,  126,  128,  129,  130,  131,  132,  569,  572,  890,  892,  893,  894,  964, 1016
 1052,
*Nset, nset=Set-2, instance=membrane-1
   8,   9,  10,  11,  12,  13,  14,  15,  16, 515, 516, 517, 518, 519, 520, 521
 522, 523, 524, 525
*Elset, elset=Set-2, instance=membrane-1
  124,  125,  126,  128,  129,  130,  131,  132,  569,  572,  890,  892,  893,  894,  964, 1016
 1052,
*End Assembly
** 
** MATERIALS
** 
*Material, name=membrane
*Density
 1.23e-09,
*Elastic
 1144.64, 0.261954
** 
** BOUNDARY CONDITIONS
** 
** Name: BC-2 Type: Symmetry/Antisymmetry/Encastre
*Boundary
Set-2, ENCASTRE
** ----------------------------------------------------------------
** 
** STEP: Step-1
** 
*Step, name=Step-1, nlgeom=NO, perturbation
*Frequency, eigensolver=Lanczos, sim, acoustic coupling=on, normalization=mass
10, , , , , 
** 
** BOUNDARY CONDITIONS
** 
** Name: BC-1 Type: Symmetry/Antisymmetry/Encastre
*Boundary
Set-1, ENCASTRE
** 
** OUTPUT REQUESTS
** 
*Restart, write, frequency=0
** 
** FIELD OUTPUT: F-Output-1
** 
*Output, field, variable=PRESELECT
*End Step
